<?xml version="1.0" encoding="UTF-8"?>

<!-- generated on 2025-01-22 14:14:04 by Eclipse SUMO netconvert Version 1.20.0
<configuration xmlns:xsi="http://www.w3.org/2001/XMLSchema-instance" xsi:noNamespaceSchemaLocation="http://sumo.dlr.de/xsd/netconvertConfiguration.xsd">

    <input>
        <sumo-net-file value="TuST.net.xml"/>
    </input>

    <output>
        <output-file value="small_TuST.net.xml"/>
        <output.street-names value="true"/>
    </output>

    <processing>
        <geometry.min-radius.fix.railways value="false"/>
        <geometry.max-grade.fix value="false"/>
        <offset.disable-normalization value="true"/>
        <lefthand value="0"/>
    </processing>

    <edge_removal>
        <keep-edges.in-boundary value="14390,13845,15390,14845"/>
    </edge_removal>

    <junctions>
        <no-internal-links value="true"/>
        <no-turnarounds value="true"/>
        <junctions.corner-detail value="5"/>
        <junctions.limit-turn-speed value="5.50"/>
        <rectangular-lane-cut value="0"/>
    </junctions>

    <pedestrian>
        <walkingareas value="0"/>
    </pedestrian>

</configuration>
-->

<net version="1.20" junctionCornerDetail="5" limitTurnSpeed="5.50" xmlns:xsi="http://www.w3.org/2001/XMLSchema-instance" xsi:noNamespaceSchemaLocation="http://sumo.dlr.de/xsd/net_file.xsd">

    <location netOffset="-381673.30,-4978064.57" convBoundary="14174.10,13737.93,15444.74,14970.58" origBoundary="7.401856,44.910114,7.839383,45.247100" projParameter="+proj=utm +zone=32 +ellps=WGS84 +datum=WGS84 +units=m +no_defs"/>

    <type id="highway.primary" priority="9" numLanes="2" speed="27.78" allow="passenger" oneway="1"/>
    <type id="highway.residential" priority="4" numLanes="1" speed="13.89" allow="passenger" oneway="1"/>
    <type id="highway.secondary" priority="7" numLanes="2" speed="27.78" allow="passenger" oneway="1"/>
    <type id="highway.tertiary" priority="6" numLanes="1" speed="22.22" allow="passenger" oneway="1"/>
    <type id="highway.unclassified" priority="5" numLanes="1" speed="13.89" allow="passenger" oneway="1"/>

    <edge id="-108893046" from="1456755331" to="246519046" name="Via Clemente Damiano Priocca" priority="6" type="highway.tertiary">
        <lane id="-108893046_0" index="0" allow="passenger" speed="7.62" length="12.19" shape="15095.78,14540.89 15099.86,14542.64">
            <param key="origId" value="108893046"/>
        </lane>
        <lane id="-108893046_1" index="1" allow="passenger" speed="7.62" length="12.19" shape="15094.52,14543.83 15098.60,14545.58">
            <param key="origId" value="108893046"/>
        </lane>
    </edge>
    <edge id="-110528214#0" from="2560146999" to="1261968457" name="Lungo Dora Agrigento" priority="4" type="highway.residential">
        <lane id="-110528214#0_0" index="0" allow="passenger" speed="6.78" length="6.78" shape="14912.51,14709.46 14913.00,14709.31">
            <param key="origId" value="110528214"/>
        </lane>
    </edge>
    <edge id="-110528214#1" from="937954740" to="2560146999" name="Lungo Dora Agrigento" priority="4" type="highway.residential" shape="14861.16,14763.04 14878.77,14740.46 14890.37,14724.48 14900.43,14716.22 14907.81,14712.67 14912.84,14711.03">
        <lane id="-110528214#1_0" index="0" allow="passenger" speed="4.63" length="74.88" shape="14859.96,14761.98 14877.49,14739.50 14889.20,14723.37 14899.56,14714.86 14907.21,14711.18 14912.22,14709.55">
            <param key="origId" value="110528214"/>
        </lane>
    </edge>
    <edge id="-110528214#2" from="250536535" to="937954740" name="Lungo Dora Agrigento" priority="4" type="highway.residential">
        <lane id="-110528214#2_0" index="0" allow="passenger" speed="4.62" length="72.66" shape="14816.56,14810.85 14859.90,14762.05">
            <param key="origId" value="110528214"/>
        </lane>
    </edge>
    <edge id="-110528214#3" from="268157503" to="250536535" name="Lungo Dora Agrigento" priority="4" type="highway.residential" shape="14659.84,14970.58 14724.63,14908.81 14731.80,14895.67 14751.82,14875.28 14768.20,14859.01 14786.40,14841.48 14812.91,14817.37">
        <lane id="-110528214#3_0" index="0" allow="passenger" speed="4.81" length="217.25" shape="14658.74,14969.42 14723.35,14907.82 14730.50,14894.71 14750.69,14874.15 14767.08,14857.87 14785.31,14840.31 14805.50,14821.95">
            <param key="origId" value="110528214"/>
        </lane>
    </edge>
    <edge id="-110528218#0" from="1456755325" to="1456755331" name="Lungo Dora Savona" priority="6" type="highway.tertiary">
        <lane id="-110528218#0_0" index="0" allow="passenger" speed="4.89" length="12.69" shape="15093.15,14533.48 15093.06,14533.66">
            <param key="origId" value="110528218"/>
        </lane>
    </edge>
    <edge id="-110528218#1" from="1456755321" to="1456755325" name="Lungo Dora Savona" priority="6" type="highway.tertiary">
        <lane id="-110528218#1_0" index="0" allow="passenger" speed="4.50" length="8.23" shape="15095.97,14527.92 15092.25,14535.26">
            <param key="origId" value="110528218"/>
        </lane>
    </edge>
    <edge id="-111604743" from="247746548" to="246508959" name="Corso Regina Margherita" priority="9" type="highway.primary">
        <lane id="-111604743_0" index="0" allow="passenger" speed="8.94" length="133.85" shape="15422.41,13911.88 15302.16,13970.34">
            <param key="origId" value="111604743"/>
        </lane>
        <lane id="-111604743_1" index="1" allow="passenger" speed="8.94" length="133.85" shape="15421.01,13909.00 15300.76,13967.46">
            <param key="origId" value="111604743"/>
        </lane>
    </edge>
    <edge id="-113734603" from="1289322558" to="1289322545" name="Via Giuseppe Genè" priority="4" type="highway.residential">
        <lane id="-113734603_0" index="0" allow="passenger" speed="4.48" length="82.96" shape="15090.59,14171.80 15059.69,14108.83">
            <param key="origId" value="113734603"/>
        </lane>
    </edge>
    <edge id="-124508020" from="308746768" to="cluster_1385790390_1385790393" name="Via Conte Verde" priority="4" type="highway.residential" shape="14669.41,14013.11 14624.85,13946.57 14617.47,13940.45">
        <lane id="-124508020_0" index="0" allow="passenger" speed="3.54" length="89.30" shape="14664.81,14009.12 14623.65,13947.65 14622.99,13947.10">
            <param key="origId" value="124508020"/>
        </lane>
    </edge>
    <edge id="-132419471" from="1261968457" to="cluster_250536581_442931313" name="Lungo Dora Agrigento" priority="4" type="highway.residential" shape="14919.34,14709.11 14927.62,14706.95">
        <lane id="-132419471_0" index="0" allow="passenger" speed="5.24" length="12.02" shape="14922.39,14706.66 14922.58,14706.61">
            <param key="origId" value="132419471"/>
        </lane>
    </edge>
    <edge id="-132419481" from="1199830876" to="1456755321" name="Lungo Dora Savona" priority="6" type="highway.tertiary">
        <lane id="-132419481_0" index="0" allow="passenger" speed="2.78" length="31.76" shape="15107.83,14504.52 15095.97,14527.92">
            <param key="origId" value="132419481"/>
        </lane>
    </edge>
    <edge id="-133203518#0" from="246508742" to="947982063" name="Corso San Maurizio" priority="6" type="highway.tertiary">
        <lane id="-133203518#0_0" index="0" allow="passenger" speed="9.51" length="174.30" shape="15347.68,13789.12 15250.03,13933.14">
            <param key="origId" value="133203518"/>
        </lane>
        <lane id="-133203518#0_1" index="1" allow="passenger" speed="9.51" length="174.30" shape="15345.03,13787.33 15247.38,13931.34">
            <param key="origId" value="133203518"/>
        </lane>
    </edge>
    <edge id="-133661501#0" from="250536669" to="1199830876" name="Lungo Dora Savona" priority="6" type="highway.tertiary" shape="15175.91,14371.75 15116.55,14484.25 15108.90,14498.87">
        <lane id="-133661501#0_0" index="0" allow="passenger" speed="11.78" length="143.70" shape="15173.96,14378.87 15117.97,14485.00 15112.77,14494.93">
            <param key="origId" value="133661501"/>
        </lane>
    </edge>
    <edge id="-133661501#1" from="3226552305" to="250536669" name="Lungo Dora Savona" priority="6" type="highway.tertiary" shape="15210.19,14309.38 15179.36,14365.47 15175.91,14371.75">
        <lane id="-133661501#1_0" index="0" allow="passenger" speed="7.44" length="71.17" shape="15211.59,14310.15 15180.75,14366.27">
            <param key="origId" value="133661501"/>
        </lane>
    </edge>
    <edge id="-133661501#2" from="250536670" to="3226552305" name="Lungo Dora Savona" priority="6" type="highway.tertiary" shape="15258.38,14221.68 15225.86,14280.86 15210.19,14309.38">
        <lane id="-133661501#2_0" index="0" allow="passenger" speed="7.19" length="100.07" shape="15256.84,14227.81 15227.26,14281.63 15211.59,14310.15">
            <param key="origId" value="133661501"/>
        </lane>
    </edge>
    <edge id="-133661501#3" from="1448024865" to="250536670" name="Lungo Dora Savona" priority="6" type="highway.tertiary">
        <lane id="-133661501#3_0" index="0" allow="passenger" speed="4.59" length="117.79" shape="15327.22,14126.27 15262.44,14218.67">
            <param key="origId" value="133661501"/>
        </lane>
    </edge>
    <edge id="-133661501#4" from="cluster_246508608_3698890761_3698890763_442931302" to="1448024865" name="Lungo Dora Savona" priority="6" type="highway.tertiary" shape="15329.10,14120.80 15326.00,14125.23">
        <lane id="-133661501#4_0" index="0" allow="passenger" speed="6.55" length="16.10" shape="15326.84,14126.82 15326.73,14126.98">
            <param key="origId" value="133661501"/>
        </lane>
    </edge>
    <edge id="-135477622#0" from="cluster_1385790390_1385790393" to="308744834" name="Via Torquato Tasso" priority="4" type="highway.residential" shape="14624.08,13936.40 14654.66,13917.39">
        <lane id="-135477622#0_0" index="0" allow="passenger" speed="4.31" length="39.88" shape="14629.93,13930.88 14653.82,13916.03">
            <param key="origId" value="135477622"/>
        </lane>
    </edge>
    <edge id="-135477622#2" from="1487948655" to="cluster_1385790390_1385790393" name="Via Torquato Tasso" priority="4" type="highway.residential" shape="14603.46,13949.21 14617.47,13940.45">
        <lane id="-135477622#2_0" index="0" allow="passenger" speed="4.66" length="20.40" shape="14608.94,13943.90 14611.27,13942.44">
            <param key="origId" value="135477622"/>
        </lane>
    </edge>
    <edge id="-135477622#3" from="cluster_308744835_308745117" to="1487948655" name="Via Torquato Tasso" priority="4" type="highway.residential" shape="14575.15,13966.81 14603.46,13949.21">
        <lane id="-135477622#3_0" index="0" allow="passenger" speed="4.10" length="36.30" shape="14579.32,13962.33 14596.70,13951.53">
            <param key="origId" value="135477622"/>
        </lane>
    </edge>
    <edge id="-135477875" from="1487948655" to="1487948652" name="Via Giovanni Berchet" priority="4" type="highway.residential">
        <lane id="-135477875_0" index="0" allow="passenger" speed="4.89" length="63.85" shape="14598.59,13943.34 14576.56,13901.18">
            <param key="origId" value="135477875"/>
        </lane>
    </edge>
    <edge id="-157392062" from="cluster_1385790390_1385790393" to="308746766" name="Via Conte Verde" priority="4" type="highway.residential" shape="14624.08,13936.40 14606.31,13889.91">
        <lane id="-157392062_0" index="0" allow="passenger" speed="3.93" length="51.28" shape="14619.77,13929.61 14607.76,13898.19">
            <param key="origId" value="157392062"/>
        </lane>
    </edge>
    <edge id="-157392810#1" from="1261968458" to="cluster_250536538_442931317" name="Via Vittorio Andreis" priority="4" type="highway.residential" shape="14823.66,14510.95 14832.47,14506.65">
        <lane id="-157392810#1_0" index="0" allow="passenger" speed="5.36" length="13.86" shape="14827.26,14507.41 14827.44,14507.33">
            <param key="origId" value="157392810"/>
        </lane>
    </edge>
    <edge id="-157392810#2" from="1780531323" to="1261968458" name="Via Vittorio Andreis" priority="4" type="highway.residential">
        <lane id="-157392810#2_0" index="0" allow="passenger" speed="6.61" length="69.38" shape="14764.97,14536.92 14817.85,14511.92">
            <param key="origId" value="157392810"/>
        </lane>
    </edge>
    <edge id="-157392810#3" from="250536532" to="1780531323" name="Via Vittorio Andreis" priority="4" type="highway.residential">
        <lane id="-157392810#3_0" index="0" allow="passenger" speed="9.40" length="37.36" shape="14732.52,14552.24 14755.21,14541.53">
            <param key="origId" value="157392810"/>
        </lane>
    </edge>
    <edge id="-157392810#4" from="4518486079" to="250536532" name="Via Vittorio Andreis" priority="4" type="highway.residential">
        <lane id="-157392810#4_0" index="0" allow="passenger" speed="2.78" length="4.34" shape="14723.81,14556.77 14723.98,14556.67">
            <param key="origId" value="157392810"/>
        </lane>
    </edge>
    <edge id="-157392810#5" from="250536527" to="4518486079" name="Via Vittorio Andreis" priority="4" type="highway.residential">
        <lane id="-157392810#5_0" index="0" allow="passenger" speed="9.17" length="23.62" shape="14710.01,14565.62 14724.85,14556.11">
            <param key="origId" value="157392810"/>
        </lane>
    </edge>
    <edge id="-157392810#6" from="4518486071" to="250536527" name="Via Vittorio Andreis" priority="4" type="highway.residential">
        <lane id="-157392810#6_0" index="0" allow="passenger" speed="14.17" length="15.35" shape="14691.31,14575.01 14699.66,14571.22">
            <param key="origId" value="157392810"/>
        </lane>
    </edge>
    <edge id="-157392810#7" from="308200636" to="4518486071" name="Via Vittorio Andreis" priority="4" type="highway.residential">
        <lane id="-157392810#7_0" index="0" allow="passenger" speed="8.43" length="42.79" shape="14657.80,14590.24 14691.31,14575.01">
            <param key="origId" value="157392810"/>
        </lane>
    </edge>
    <edge id="-157392810#8" from="250536536" to="308200636" name="Via Vittorio Andreis" priority="4" type="highway.residential" shape="14472.49,14679.96 14478.27,14677.21 14653.01,14594.17">
        <lane id="-157392810#8_0" index="0" allow="passenger" speed="7.58" length="199.87" shape="14478.12,14675.51 14643.96,14596.70">
            <param key="origId" value="157392810"/>
        </lane>
    </edge>
    <edge id="-209335804" from="2195578547" to="2195578551" name="Sottopasso Repubblica" priority="9" type="highway.primary">
        <lane id="-209335804_0" index="0" allow="passenger" speed="10.19" length="213.37" shape="14603.30,14310.18 14411.57,14403.80">
            <param key="origId" value="209335804"/>
        </lane>
        <lane id="-209335804_1" index="1" allow="passenger" speed="10.19" length="213.37" shape="14601.89,14307.31 14410.16,14400.93">
            <param key="origId" value="209335804"/>
        </lane>
    </edge>
    <edge id="-209335805" from="246519433" to="2195578542" name="Sottopasso Repubblica" priority="9" type="highway.primary">
        <lane id="-209335805_0" index="0" allow="passenger" speed="3.97" length="123.78" shape="15074.51,14080.45 14963.33,14134.52">
            <param key="origId" value="209335805"/>
        </lane>
        <lane id="-209335805_1" index="1" allow="passenger" speed="3.97" length="123.78" shape="15073.11,14077.57 14961.93,14131.64">
            <param key="origId" value="209335805"/>
        </lane>
    </edge>
    <edge id="-209335806" from="2195578542" to="2195578547" name="Sottopasso Repubblica" priority="9" type="highway.primary" shape="14961.23,14130.20 14908.55,14155.81 14601.19,14305.87">
        <lane id="-209335806_0" index="0" allow="passenger" speed="4.30" length="400.61" shape="14963.33,14134.52 14910.65,14160.13 14603.30,14310.18">
            <param key="origId" value="209335806"/>
        </lane>
        <lane id="-209335806_1" index="1" allow="passenger" speed="4.30" length="400.61" shape="14961.93,14131.64 14909.25,14157.25 14601.89,14307.31">
            <param key="origId" value="209335806"/>
        </lane>
    </edge>
    <edge id="-22897065#0" from="941374505" to="246508894" name="Via Gianfrancesco Fiochetto" priority="5" type="highway.unclassified" shape="15113.36,14162.39 15123.64,14151.27 15165.95,14093.34 15180.19,14061.50 15184.32,14052.25">
        <lane id="-22897065#0_0" index="0" allow="passenger" speed="3.73" length="131.89" shape="15115.76,14157.43 15122.40,14150.25 15164.56,14092.53 15178.73,14060.85 15179.60,14058.91">
            <param key="origId" value="22897065"/>
        </lane>
    </edge>
    <edge id="-22897065#1" from="1289322558" to="941374505" name="Via Gianfrancesco Fiochetto" priority="5" type="highway.unclassified" shape="15095.21,14177.58 15104.24,14170.79 15113.36,14162.39">
        <lane id="-22897065#1_0" index="0" allow="passenger" speed="4.37" length="23.70" shape="15097.91,14173.55 15103.21,14169.56 15108.88,14164.34">
            <param key="origId" value="22897065"/>
        </lane>
    </edge>
    <edge id="-22897065#2" from="246508890" to="1289322558" name="Via Gianfrancesco Fiochetto" priority="5" type="highway.unclassified" shape="14989.12,14230.62 14996.49,14226.93 15095.21,14177.58">
        <lane id="-22897065#2_0" index="0" allow="passenger" speed="2.78" length="118.61" shape="14995.05,14225.86 14995.77,14225.50 15088.10,14179.34">
            <param key="origId" value="22897065"/>
        </lane>
    </edge>
    <edge id="-22897067" from="246508960" to="247746557" name="Via Carlo Goldoni" priority="4" type="highway.residential" shape="15353.05,14083.68 15346.23,14068.47 15310.25,13988.16 15307.49,13982.01">
        <lane id="-22897067_0" index="0" allow="passenger" speed="7.33" length="111.41" shape="15348.39,14077.20 15344.77,14069.12 15308.79,13988.81 15308.36,13987.86">
            <param key="origId" value="22897067"/>
        </lane>
    </edge>
    <edge id="-22898291" from="2195578551" to="246142504" name="Sottopasso Repubblica" priority="9" type="highway.primary">
        <lane id="-22898291_0" index="0" allow="passenger" speed="16.53" length="18.18" shape="14411.57,14403.80 14401.80,14408.57">
            <param key="origId" value="22898291"/>
        </lane>
        <lane id="-22898291_1" index="1" allow="passenger" speed="16.53" length="18.18" shape="14410.16,14400.93 14400.39,14405.70">
            <param key="origId" value="22898291"/>
        </lane>
    </edge>
    <edge id="-22898293#0" from="948015787" to="246142504" name="Corso Regina Margherita" priority="9" type="highway.primary">
        <lane id="-22898293#0_0" index="0" allow="passenger" speed="12.81" length="243.95" shape="14171.99,14510.60 14384.46,14406.37">
            <param key="origId" value="22898293"/>
        </lane>
        <lane id="-22898293#0_1" index="1" allow="passenger" speed="12.81" length="243.95" shape="14173.40,14513.47 14385.86,14409.25">
            <param key="origId" value="22898293"/>
        </lane>
    </edge>
    <edge id="-22953959#0" from="939124384" to="cluster_247746582_5757308271" name="Via Porta Palatina" priority="4" type="highway.residential" shape="14857.62,14189.98 14861.79,14198.31">
        <lane id="-22953959#0_0" index="0" allow="passenger" speed="11.83" length="12.84" shape="14859.05,14189.26 14861.84,14194.84">
            <param key="origId" value="22953959"/>
        </lane>
    </edge>
    <edge id="-22953959#1" from="247746581" to="939124384" name="Via Porta Palatina" priority="4" type="highway.residential">
        <lane id="-22953959#1_0" index="0" allow="passenger" speed="12.54" length="4.96" shape="14856.83,14184.83 14859.05,14189.26">
            <param key="origId" value="22953959"/>
        </lane>
    </edge>
    <edge id="-22953959#2" from="cluster_247314960_5757308272_5757308273" to="247746581" name="Via Porta Palatina" priority="4" type="highway.residential" shape="14846.55,14167.88 14855.40,14185.55">
        <lane id="-22953959#2_0" index="0" allow="passenger" speed="2.95" length="23.81" shape="14850.50,14172.20 14856.83,14184.83">
            <param key="origId" value="22953959"/>
        </lane>
    </edge>
    <edge id="-22953959#4" from="1263358770" to="cluster_247314960_5757308272_5757308273" name="Via Porta Palatina" priority="4" type="highway.residential" shape="14802.67,14084.78 14806.41,14087.15 14809.43,14091.68 14841.98,14158.50">
        <lane id="-22953959#4_0" index="0" allow="passenger" speed="3.02" length="91.91" shape="14804.48,14084.03 14807.55,14085.98 14810.82,14090.88 14843.42,14157.80">
            <param key="origId" value="22953959"/>
        </lane>
    </edge>
    <edge id="-22953959#5" from="1474149832" to="1263358770" name="Via Porta Palatina" priority="4" type="highway.residential" shape="14782.22,14092.19 14797.21,14085.40 14802.67,14084.78">
        <lane id="-22953959#5_0" index="0" allow="passenger" speed="4.50" length="21.95" shape="14781.70,14090.67 14796.78,14083.84 14801.37,14083.32">
            <param key="origId" value="22953959"/>
        </lane>
    </edge>
    <edge id="-22953959#6" from="247314963" to="1474149832" name="Via Porta Palatina" priority="4" type="highway.residential" shape="14764.71,14100.11 14773.81,14095.99 14782.22,14092.19">
        <lane id="-22953959#6_0" index="0" allow="passenger" speed="5.14" length="19.22" shape="14764.47,14098.46 14773.15,14094.53 14781.42,14090.79">
            <param key="origId" value="22953959"/>
        </lane>
    </edge>
    <edge id="-22981924#0" from="941374164" to="247747443" name="Via Gianfrancesco Fiochetto" priority="4" type="highway.residential" shape="14963.22,14236.79 14956.61,14239.48 14857.48,14279.74">
        <lane id="-22981924#0_0" index="0" allow="passenger" speed="4.49" length="114.13" shape="14956.89,14241.09 14864.80,14278.49">
            <param key="origId" value="22981924"/>
        </lane>
    </edge>
    <edge id="-22981924#1" from="1199830878" to="941374164" name="Via Gianfrancesco Fiochetto" priority="4" type="highway.residential">
        <lane id="-22981924#1_0" index="0" allow="passenger" speed="6.30" length="9.25" shape="14972.44,14236.18 14969.95,14236.79">
            <param key="origId" value="22981924"/>
        </lane>
    </edge>
    <edge id="-22981924#2" from="1199830889" to="1199830878" name="Via Gianfrancesco Fiochetto" priority="4" type="highway.residential" shape="14980.66,14232.61 14976.73,14233.53 14972.20,14234.59">
        <lane id="-22981924#2_0" index="0" allow="passenger" speed="3.94" length="8.69" shape="14980.88,14234.20 14977.09,14235.09 14972.71,14236.11">
            <param key="origId" value="22981924"/>
        </lane>
    </edge>
    <edge id="-22981924#3" from="246508890" to="1199830889" name="Via Gianfrancesco Fiochetto" priority="4" type="highway.residential">
        <lane id="-22981924#3_0" index="0" allow="passenger" speed="2.90" length="8.69" shape="14981.92,14233.96 14981.17,14234.13">
            <param key="origId" value="22981924"/>
        </lane>
    </edge>
    <edge id="-23028458" from="306552080" to="13924317" name="Ponte Bologna" priority="7" type="highway.secondary">
        <lane id="-23028458_0" index="0" allow="passenger" speed="9.94" length="12.53" shape="15157.45,14564.73 15160.97,14566.13">
            <param key="origId" value="23028458"/>
        </lane>
        <lane id="-23028458_1" index="1" allow="passenger" speed="9.94" length="12.53" shape="15156.27,14567.71 15159.79,14569.10">
            <param key="origId" value="23028458"/>
        </lane>
    </edge>
    <edge id="-23028464#0" from="247747443" to="1199240631" name="Via Clemente Damiano Priocca" priority="4" type="highway.residential">
        <lane id="-23028464#0_0" index="0" allow="passenger" speed="4.02" length="24.30" shape="14851.89,14279.34 14839.52,14274.68">
            <param key="origId" value="23028464"/>
        </lane>
    </edge>
    <edge id="-23028464#1" from="cluster_2621339803_2621574124" to="247747443" name="Via Clemente Damiano Priocca" priority="4" type="highway.residential" shape="14875.48,14321.99 14857.48,14279.74">
        <lane id="-23028464#1_0" index="0" allow="passenger" speed="5.94" length="48.62" shape="14871.26,14316.16 14858.85,14287.04">
            <param key="origId" value="23028464"/>
        </lane>
    </edge>
    <edge id="-23028464#3" from="246519369" to="cluster_2621339803_2621574124" name="Via Clemente Damiano Priocca" priority="4" type="highway.residential" shape="14892.56,14362.07 14877.59,14326.94">
        <lane id="-23028464#3_0" index="0" allow="passenger" speed="6.74" length="40.87" shape="14890.99,14362.46 14878.95,14334.22">
            <param key="origId" value="23028464"/>
        </lane>
    </edge>
    <edge id="-23028464#4" from="cluster_250536556_250536557" to="246519369" name="Via Clemente Damiano Priocca" priority="4" type="highway.residential" shape="14912.96,14394.55 14892.56,14362.07">
        <lane id="-23028464#4_0" index="0" allow="passenger" speed="3.33" length="44.11" shape="14907.63,14389.07 14891.34,14363.14">
            <param key="origId" value="23028464"/>
        </lane>
    </edge>
    <edge id="-23124247#0" from="4500506513" to="249665556" name="Via Alessandria" priority="4" type="highway.residential">
        <lane id="-23124247#0_0" index="0" allow="passenger" speed="4.57" length="7.78" shape="15215.09,14609.82 15215.23,14609.64">
            <param key="origId" value="23124247"/>
        </lane>
    </edge>
    <edge id="-23124247#1" from="249665557" to="4500506513" name="Via Alessandria" priority="4" type="highway.residential">
        <lane id="-23124247#1_0" index="0" allow="passenger" speed="3.97" length="11.25" shape="15209.21,14616.75 15215.04,14609.87">
            <param key="origId" value="23124247"/>
        </lane>
    </edge>
    <edge id="-23124247#2" from="4500506512" to="249665557" name="Via Alessandria" priority="4" type="highway.residential">
        <lane id="-23124247#2_0" index="0" allow="passenger" speed="3.42" length="30.18" shape="15220.73,14647.26 15208.55,14621.93">
            <param key="origId" value="23124247"/>
        </lane>
    </edge>
    <edge id="-23124247#3" from="249665555" to="4500506512" name="Via Alessandria" priority="4" type="highway.residential">
        <lane id="-23124247#3_0" index="0" allow="passenger" speed="3.27" length="98.57" shape="15259.08,14727.08 15220.73,14647.26">
            <param key="origId" value="23124247"/>
        </lane>
    </edge>
    <edge id="-23124247#4" from="249665558" to="249665555" name="Via Alessandria" priority="4" type="highway.residential">
        <lane id="-23124247#4_0" index="0" allow="passenger" speed="7.20" length="88.17" shape="15299.89,14808.42 15266.68,14742.58">
            <param key="origId" value="23124247"/>
        </lane>
    </edge>
    <edge id="-23171506#0" from="1261968459" to="cluster_250536581_442931313" name="Lungo Dora Savona" priority="4" type="highway.residential" shape="14943.04,14697.25 14933.86,14703.75">
        <lane id="-23171506#0_0" index="0" allow="passenger" speed="8.66" length="14.73" shape="14939.46,14701.75 14939.29,14701.86">
            <param key="origId" value="23171506"/>
        </lane>
    </edge>
    <edge id="-23171506#1" from="250536584" to="1261968459" name="Lungo Dora Savona" priority="4" type="highway.residential" shape="14995.51,14655.48 14969.39,14676.57 14943.04,14697.25">
        <lane id="-23171506#1_0" index="0" allow="passenger" speed="4.89" length="67.07" shape="14993.40,14659.24 14970.39,14677.82 14949.04,14694.58">
            <param key="origId" value="23171506"/>
        </lane>
    </edge>
    <edge id="-23171506#2" from="250536585" to="250536584" name="Lungo Dora Savona" priority="4" type="highway.residential" shape="15058.69,14592.39 15042.69,14610.07 15025.42,14627.84 14995.51,14655.48">
        <lane id="-23171506#2_0" index="0" allow="passenger" speed="8.10" length="89.35" shape="15059.70,14593.65 15043.86,14611.16 15026.54,14628.99 15000.88,14652.70">
            <param key="origId" value="23171506"/>
        </lane>
    </edge>
    <edge id="-23171508" from="1456755331" to="250536585" name="Lungo Dora Savona" priority="6" type="highway.tertiary" shape="15086.89,14542.30 15071.80,14570.58 15065.16,14582.42 15058.69,14592.39">
        <lane id="-23171508_0" index="0" allow="passenger" speed="5.15" length="57.51" shape="15083.52,14552.01 15073.20,14571.35 15066.53,14583.25 15060.17,14593.05">
            <param key="origId" value="23171508"/>
        </lane>
    </edge>
    <edge id="-23171509#0" from="3226552307" to="250536669" name="Via Giovanni Antonio Bazzi" priority="5" type="highway.unclassified" shape="15111.27,14337.82 15167.87,14367.54 15175.91,14371.75">
        <lane id="-23171509#0_0" index="0" allow="passenger" speed="6.84" length="73.00" shape="15112.01,14336.40 15168.61,14366.12 15170.26,14366.99">
            <param key="origId" value="23171509"/>
        </lane>
    </edge>
    <edge id="-23171509#1" from="cluster_1199830864_1199830867_1199830892_308200510" to="3226552307" name="Via Giovanni Antonio Bazzi" priority="5" type="highway.unclassified" shape="15012.59,14292.09 15019.37,14289.57 15111.27,14337.82">
        <lane id="-23171509#1_0" index="0" allow="passenger" speed="4.70" length="122.57" shape="15017.40,14288.60 15019.48,14287.82 15112.01,14336.40">
            <param key="origId" value="23171509"/>
        </lane>
    </edge>
    <edge id="-23171511#10" from="442931303" to="3698897200" name="Lungo Dora Firenze" priority="4" type="highway.residential">
        <lane id="-23171511#10_0" index="0" allow="passenger" speed="4.56" length="15.99" shape="15389.12,14165.82 15383.39,14174.99">
            <param key="origId" value="23171511"/>
        </lane>
    </edge>